
#======================================================================
# CRYSTAL DATA
#----------------------------------------------------------------------
data_VESTA_phase_1

_chemical_name_common                  'Ti8 H34 C48 N6 O36'
_cell_length_a                         16.254635
_cell_length_b                         16.254635
_cell_length_c                         16.254635
_cell_angle_alpha                      108.114594
_cell_angle_beta                       108.114594
_cell_angle_gamma                      112.219948
_cell_volume                           3300.315587
_space_group_name_H-M_alt              'P 1'
_space_group_IT_number                 1

loop_
_space_group_symop_operation_xyz
   'x, y, z'

loop_
   _atom_site_label
   _atom_site_occupancy
   _atom_site_fract_x
   _atom_site_fract_y
   _atom_site_fract_z
   _atom_site_adp_type
   _atom_site_U_iso_or_equiv
   _atom_site_type_symbol
   Ti1        1.0     0.289840     0.571870     0.861710    Uiso  ? Ti
   Ti2        1.0     0.710160     0.428130     0.138290    Uiso  ? Ti
   Ti3        1.0     0.428130     0.289840     0.717970    Uiso  ? Ti
   Ti4        1.0     0.571870     0.710160     0.282030    Uiso  ? Ti
   Ti5        1.0     0.428130     0.710160     0.138290    Uiso  ? Ti
   Ti6        1.0     0.571870     0.289840     0.861710    Uiso  ? Ti
   Ti7        1.0     0.289840     0.428130     0.717970    Uiso  ? Ti
   Ti8        1.0     0.710160     0.571870     0.282030    Uiso  ? Ti
   H1         1.0     0.540779     0.381490     0.544227    Uiso  ? H
   H2         1.0     0.162737     0.003448     0.544227    Uiso  ? H
   H3         1.0     0.837263     0.996552     0.455773    Uiso  ? H
   H4         1.0     0.381490     0.837263     0.840711    Uiso  ? H
   H5         1.0     0.618510     0.162737     0.159289    Uiso  ? H
   H6         1.0     0.003448     0.459221     0.840711    Uiso  ? H
   H7         1.0     0.996552     0.540779     0.159289    Uiso  ? H
   H8         1.0     0.459221     0.003448     0.840711    Uiso  ? H
   H9         1.0     0.162737     0.618510     0.159289    Uiso  ? H
   H10        1.0     0.618510     0.459221     0.455773    Uiso  ? H
   H11        1.0     0.381490     0.540779     0.544227    Uiso  ? H
   H12        1.0     0.003448     0.162737     0.544227    Uiso  ? H
   H13        1.0     0.426196     0.573804     0.000000    Uiso  ? H
   H14        1.0     0.573804     0.426196     0.000000    Uiso  ? H
   H15        1.0     0.426196     0.426196     0.852392    Uiso  ? H
   H16        1.0     0.573804     0.573804     0.147608    Uiso  ? H
   H17        1.0     0.387265     0.065726     0.452991    Uiso  ? H
   H18        1.0     0.612735     0.934274     0.547009    Uiso  ? H
   H19        1.0     0.065726     0.612735     0.678461    Uiso  ? H
   H20        1.0     0.934274     0.387265     0.321539    Uiso  ? H
   H21        1.0     0.065726     0.387265     0.452991    Uiso  ? H
   H22        1.0     0.387265     0.934274     0.321539    Uiso  ? H
   H23        1.0     0.534538     0.956158     0.195693    Uiso  ? H
   H24        1.0     0.574914     0.032972     0.234054    Uiso  ? H
   H25        1.0     0.791652     0.362606     0.770884    Uiso  ? H
   H26        1.0     0.767731     0.317099     0.799369    Uiso  ? H
   H27        1.0     0.904215     0.639612     0.586329    Uiso  ? H
   H28        1.0     0.917333     0.664568     0.539398    Uiso  ? H
   H29        1.0     0.633594     0.054039     0.737107    Uiso  ? H
   H30        1.0     0.670587     0.124414     0.745527    Uiso  ? H
   H31        1.0     0.405100     0.405166     0.576999    Uiso  ? H
   H32        1.0     0.457951     0.614093     0.461555    Uiso  ? H
   H33        1.0     0.838088     0.836261     0.426669    Uiso  ? H
   H34        1.0     1.019543     0.849872     0.478170    Uiso  ? H
   C1         1.0     0.848553     0.500000     0.348553    Uiso  ? C
   C2         1.0     0.151447     0.500000     0.651447    Uiso  ? C
   C3         1.0     0.500000     0.151447     0.651447    Uiso  ? C
   C4         1.0     0.500000     0.848553     0.348553    Uiso  ? C
   C5         1.0     0.926712     0.500000     0.426712    Uiso  ? C
   C6         1.0     0.073288     0.500000     0.573288    Uiso  ? C
   C7         1.0     0.500000     0.073288     0.573288    Uiso  ? C
   C8         1.0     0.500000     0.926712     0.426712    Uiso  ? C
   C9         1.0     0.963545     0.563716     0.527261    Uiso  ? C
   C10        1.0     0.036455     0.436284     0.472739    Uiso  ? C
   C11        1.0     0.563716     0.036455     0.600171    Uiso  ? C
   C12        1.0     0.436284     0.963545     0.399829    Uiso  ? C
   C13        1.0     0.563716     0.963545     0.527261    Uiso  ? C
   C14        1.0     0.436284     0.036455     0.472739    Uiso  ? C
   C15        1.0     0.963545     0.436284     0.399829    Uiso  ? C
   C16        1.0     0.036455     0.563716     0.600171    Uiso  ? C
   C17        1.0     0.543491     0.543491     0.450966    Uiso  ? C
   C18        1.0     0.456509     0.456509     0.549034    Uiso  ? C
   C19        1.0     0.907475     0.907475     0.450966    Uiso  ? C
   C20        1.0     0.092525     0.092525     0.549034    Uiso  ? C
   C21        1.0     0.543491     0.092525     0.000000    Uiso  ? C
   C22        1.0     0.456509     0.907475     0.000000    Uiso  ? C
   C23        1.0     0.907475     0.456509     0.000000    Uiso  ? C
   C24        1.0     0.092525     0.543491     0.000000    Uiso  ? C
   C25        1.0     0.588669     0.588669     0.397188    Uiso  ? C
   C26        1.0     0.191481     0.191481     0.602812    Uiso  ? C
   C27        1.0     0.588669     0.191481     0.000000    Uiso  ? C
   C28        1.0     0.411331     0.808519     0.000000    Uiso  ? C
   C29        1.0     0.808519     0.411331     0.000000    Uiso  ? C
   C30        1.0     0.191481     0.588669     0.000000    Uiso  ? C
   C31        1.0     0.476593     0.566647     0.475620    Uiso  ? C
   C32        1.0     0.523407     0.433353     0.524380    Uiso  ? C
   C33        1.0     0.908973     0.999027     0.475620    Uiso  ? C
   C34        1.0     0.091027     0.000973     0.524380    Uiso  ? C
   C35        1.0     0.566647     0.091027     0.090054    Uiso  ? C
   C36        1.0     0.433353     0.908973     0.909946    Uiso  ? C
   C37        1.0     0.999027     0.523407     0.090054    Uiso  ? C
   C38        1.0     0.000973     0.476593     0.909946    Uiso  ? C
   C39        1.0     0.999027     0.908973     0.475620    Uiso  ? C
   C40        1.0     0.000973     0.091027     0.524380    Uiso  ? C
   C41        1.0     0.566647     0.476593     0.475620    Uiso  ? C
   C42        1.0     0.433353     0.523407     0.524380    Uiso  ? C
   C43        1.0     0.908973     0.433353     0.909946    Uiso  ? C
   C44        1.0     0.091027     0.566647     0.090054    Uiso  ? C
   C45        1.0     0.476593     0.000973     0.909946    Uiso  ? C
   C46        1.0     0.523407     0.999027     0.090054    Uiso  ? C
   N1         1.0     0.540779     0.996552     0.159289    Uiso  ? N
   N2         1.0     0.837263     0.381490     0.840711    Uiso  ? N
   N3         1.0     0.934274     0.612735     0.547009    Uiso  ? N
   N4         1.0     0.612735     0.065726     0.678461    Uiso  ? N
   O1         1.0     0.816903     0.559116     0.376019    Uiso  ? O
   O2         1.0     0.183097     0.440884     0.623981    Uiso  ? O
   O3         1.0     0.559116     0.183097     0.742213    Uiso  ? O
   O4         1.0     0.440884     0.816903     0.257787    Uiso  ? O
   O5         1.0     0.559116     0.816903     0.376019    Uiso  ? O
   O6         1.0     0.440884     0.183097     0.623981    Uiso  ? O
   O7         1.0     0.816903     0.440884     0.257787    Uiso  ? O
   O8         1.0     0.183097     0.559116     0.742213    Uiso  ? O
   O9         1.0     0.631495     0.432344     0.199151    Uiso  ? O
   O10        1.0     0.368505     0.567656     0.800849    Uiso  ? O
   O11        1.0     0.766807     0.567656     0.199151    Uiso  ? O
   O12        1.0     0.233193     0.432344     0.800849    Uiso  ? O
   O13        1.0     0.432344     0.233193     0.800849    Uiso  ? O
   O14        1.0     0.567656     0.766807     0.199151    Uiso  ? O
   O15        1.0     0.567656     0.368505     0.800849    Uiso  ? O
   O16        1.0     0.432344     0.631495     0.199151    Uiso  ? O
   O17        1.0     0.648345     0.564903     0.375464    Uiso  ? O
   O18        1.0     0.189439     0.272881     0.624536    Uiso  ? O
   O19        1.0     0.564903     0.189439     0.916558    Uiso  ? O
   O20        1.0     0.435097     0.810561     0.083442    Uiso  ? O
   O21        1.0     0.727119     0.351655     0.916558    Uiso  ? O
   O22        1.0     0.272881     0.648345     0.083442    Uiso  ? O
   O23        1.0     0.272881     0.189439     0.624536    Uiso  ? O
   O24        1.0     0.564903     0.648345     0.375464    Uiso  ? O
   O25        1.0     0.810561     0.435097     0.083442    Uiso  ? O
   O26        1.0     0.189439     0.564903     0.916558    Uiso  ? O
   O27        1.0     0.648345     0.272881     0.083442    Uiso  ? O
   O28        1.0     0.351655     0.727119     0.916558    Uiso  ? O
   O29        1.0     0.609745     0.609745     0.219490    Uiso  ? O
   O30        1.0     0.390255     0.390255     0.780510    Uiso  ? O
   O31        1.0     0.609745     0.390255     0.000000    Uiso  ? O
   O32        1.0     0.390255     0.609745     0.000000    Uiso  ? O
